PSSE/ieee1354.raw
0, 100, 33, 0, 0, 60  / 23-Mar-2023 19:04:44 - MATPOWER 7.1


     3, 'BUS 3       ',       220, 1,    0,    5, 1,    1.016674,  -21.761632,  1.1,  0.9,  1.1,  0.9
     4, 'BUS 4       ',       220, 1,    0,    5, 1,    1.026472,   -7.007354,  1.1,  0.9,  1.1,  0.9
    10, 'BUS 10      ',       220, 1,    0,    5, 1,    1.038534,  -24.281644,  1.1,  0.9,  1.1,  0.9
    21, 'BUS 21      ',       220, 1,    0,    5, 1,    1.036195,  -21.958828,  1.1,  0.9,  1.1,  0.9
    22, 'BUS 22      ',       220, 1,    0,    5, 1,    1.035058,  -18.483339,  1.1,  0.9,  1.1,  0.9
    26, 'BUS 26      ',       380, 1,    0,    5, 1,    1.032267,   -3.318448,  1.1,  0.9,  1.1,  0.9
    29, 'BUS 29      ',       380, 1,    0,    5, 1,    0.994409,  -13.816418,  1.1,  0.9,  1.1,  0.9
    44, 'BUS 44      ',       220, 1,    0,    5, 1,    1.045829,  -22.181066,  1.1,  0.9,  1.1,  0.9
    53, 'BUS 53      ',       220, 1,    0,    5, 1,    1.063422,   -9.070013,  1.1,  0.9,  1.1,  0.9
    58, 'BUS 58      ',       380, 1,    0,    5, 1,    0.983702,  -21.159412,  1.1,  0.9,  1.1,  0.9
    59, 'BUS 59      ',       220, 1,    0,    5, 1,    1.036808,  -23.631999,  1.1,  0.9,  1.1,  0.9
    90, 'BUS 90      ',       220, 1,    0,    5, 1,    1.042187,  -27.546292,  1.1,  0.9,  1.1,  0.9
    96, 'BUS 96      ',       220, 1,    0,    5, 1,    1.030441,  -15.689479,  1.1,  0.9,  1.1,  0.9
   113, 'BUS 113     ',       380, 1,    0,    5, 1,    1.030718,  -14.242909,  1.1,  0.9,  1.1,  0.9
   115, 'BUS 115     ',       220, 1,    0,    5, 1,    1.066797,  -19.783678,  1.1,  0.9,  1.1,  0.9
   118, 'BUS 118     ',       380, 1,    0,    5, 1,    1.020256,  -11.430028,  1.1,  0.9,  1.1,  0.9
   124, 'BUS 124     ',       220, 2,    0,    5, 1,    1.081537,    8.330657,  1.1,  0.9,  1.1,  0.9
   128, 'BUS 128     ',       220, 1,    0,    5, 1,    1.020482,  -16.063366,  1.1,  0.9,  1.1,  0.9
   145, 'BUS 145     ',       220, 1,    0,    5, 1,    1.039096,   -8.903623,  1.1,  0.9,  1.1,  0.9
   148, 'BUS 148     ',       220, 1,    0,    5, 1,    1.041568,   -7.991267,  1.1,  0.9,  1.1,  0.9
   150, 'BUS 150     ',       220, 2,    0,    5, 1,    1.062805,    2.531831,  1.1,  0.9,  1.1,  0.9
   163, 'BUS 163     ',       220, 1,    0,    5, 1,    1.047047,  -10.672351,  1.1,  0.9,  1.1,  0.9
   171, 'BUS 171     ',       220, 1,    0,    5, 1,    1.069649,  -25.153324,  1.1,  0.9,  1.1,  0.9
   174, 'BUS 174     ',       220, 1,    0,    5, 1,    1.074846,  -27.942789,  1.1,  0.9,  1.1,  0.9
   184, 'BUS 184     ',       220, 1,    0,    5, 1,    1.042771,   -11.94851,  1.1,  0.9,  1.1,  0.9
   188, 'BUS 188     ',       220, 1,    0,    5, 1,    1.018752,  -19.550413,  1.1,  0.9,  1.1,  0.9
   195, 'BUS 195     ',       220, 1,    0,    5, 1,    1.056337,   -8.791116,  1.1,  0.9,  1.1,  0.9
   196, 'BUS 196     ',       220, 1,    0,    5, 1,    1.074825,  -26.319857,  1.1,  0.9,  1.1,  0.9
   198, 'BUS 198     ',       220, 1,    0,    5, 1,     1.01673,  -16.306681,  1.1,  0.9,  1.1,  0.9
   207, 'BUS 207     ',       220, 1,    0,    5, 1,    1.026604,  -13.457588,  1.1,  0.9,  1.1,  0.9
   216, 'BUS 216     ',       220, 1,    0,    5, 1,    1.039362,  -24.590496,  1.1,  0.9,  1.1,  0.9
   217, 'BUS 217     ',       220, 1,    0,    5, 1,    1.042762,   -2.603638,  1.1,  0.9,  1.1,  0.9
   218, 'BUS 218     ',       220, 1,    0,    5, 1,    1.045923,  -13.114892,  1.1,  0.9,  1.1,  0.9
   221, 'BUS 221     ',       380, 2,    0,    5, 1,    0.984682,  -21.807603,  1.1,  0.9,  1.1,  0.9
   225, 'BUS 225     ',       220, 1,    0,    5, 1,    1.063761,  -20.174043,  1.1,  0.9,  1.1,  0.9
   280, 'BUS 280     ',       220, 1,    0,    5, 1,    1.035725,  -11.193679,  1.1,  0.9,  1.1,  0.9
   283, 'BUS 283     ',       220, 1,    0,    5, 1,    1.035204,  -12.094637,  1.1,  0.9,  1.1,  0.9
   292, 'BUS 292     ',       220, 1,    0,    5, 1,    1.047544,  -14.765137,  1.1,  0.9,  1.1,  0.9
   305, 'BUS 305     ',       220, 1,    0,    5, 1,    1.067188,  -32.434719,  1.1,  0.9,  1.1,  0.9
   306, 'BUS 306     ',       220, 1,    0,    5, 1,    1.030032,  -18.823594,  1.1,  0.9,  1.1,  0.9
   314, 'BUS 314     ',       220, 1,    0,    5, 1,    1.005548,  -16.020947,  1.1,  0.9,  1.1,  0.9
   333, 'BUS 333     ',       220, 1,    0,    5, 1,    1.014579,  -42.137692,  1.1,  0.9,  1.1,  0.9
   338, 'BUS 338     ',       220, 2,    0,    5, 1,    1.048249,   -6.162533,  1.1,  0.9,  1.1,  0.9
   346, 'BUS 346     ',       220, 1,    0,    5, 1,    1.040694,  -21.298393,  1.1,  0.9,  1.1,  0.9
   350, 'BUS 350     ',       220, 1,    0,    5, 1,    1.043185,  -24.295117,  1.1,  0.9,  1.1,  0.9
   352, 'BUS 352     ',       380, 2,    0,    5, 1,    1.055378,    0.262953,  1.1,  0.9,  1.1,  0.9
   367, 'BUS 367     ',       220, 1,    0,    5, 1,     1.07164,  -23.599251,  1.1,  0.9,  1.1,  0.9
   401, 'BUS 401     ',       220, 1,    0,    5, 1,    1.026548,  -14.262083,  1.1,  0.9,  1.1,  0.9
   408, 'BUS 408     ',       220, 1,    0,    5, 1,    1.039791,  -11.549917,  1.1,  0.9,  1.1,  0.9
   410, 'BUS 410     ',       220, 1,    0,    5, 1,    1.041564,  -26.439994,  1.1,  0.9,  1.1,  0.9
   413, 'BUS 413     ',       220, 2,    0,    5, 1,     1.05013,   -6.606455,  1.1,  0.9,  1.1,  0.9
   416, 'BUS 416     ',       220, 1,    0,    5, 1,      1.0458,   -6.728632,  1.1,  0.9,  1.1,  0.9
   426, 'BUS 426     ',       220, 1,    0,    5, 1,    1.040489,  -18.395441,  1.1,  0.9,  1.1,  0.9
   432, 'BUS 432     ',       380, 1,    0,    5, 1,    1.047774,    2.403578,  1.1,  0.9,  1.1,  0.9
   444, 'BUS 444     ',       220, 1,    0,    5, 1,    1.036267,  -12.201434,  1.1,  0.9,  1.1,  0.9
   449, 'BUS 449     ',       380, 1,    0,    5, 1,    1.021739,   -8.489958,  1.1,  0.9,  1.1,  0.9
   453, 'BUS 453     ',       380, 2,    0,    5, 1,    1.018914,   -7.857046,  1.1,  0.9,  1.1,  0.9
   455, 'BUS 455     ',       220, 1,    0,    5, 1,    1.045882,  -30.596498,  1.1,  0.9,  1.1,  0.9
   490, 'BUS 490     ',       220, 1,    0,    5, 1,    1.036451,  -23.014287,  1.1,  0.9,  1.1,  0.9
   500, 'BUS 500     ',       220, 1,    0,    5, 1,    1.040423,  -15.042452,  1.1,  0.9,  1.1,  0.9
   502, 'BUS 502     ',       220, 1,    0,    5, 1,    1.043564,   -6.675538,  1.1,  0.9,  1.1,  0.9
   506, 'BUS 506     ',       380, 1,    0,    5, 1,    1.063297,   -9.078728,  1.1,  0.9,  1.1,  0.9
   513, 'BUS 513     ',       220, 1,    0,    5, 1,    1.038461,   -7.443414,  1.1,  0.9,  1.1,  0.9
   516, 'BUS 516     ',       220, 2,    0,    5, 1,    1.075592,  -33.453515,  1.1,  0.9,  1.1,  0.9
   520, 'BUS 520     ',       220, 1,    0,    5, 1,    1.048239,  -27.108761,  1.1,  0.9,  1.1,  0.9
   549, 'BUS 549     ',       220, 1,    0,    5, 1,    1.074517,  -10.959606,  1.1,  0.9,  1.1,  0.9
   554, 'BUS 554     ',       220, 1,    0,    5, 1,    1.024071,  -20.793083,  1.1,  0.9,  1.1,  0.9
   556, 'BUS 556     ',       220, 1,    0,    5, 1,     1.03694,  -22.762979,  1.1,  0.9,  1.1,  0.9
   561, 'BUS 561     ',       220, 1,    0,    5, 1,    1.055451,  -11.021763,  1.1,  0.9,  1.1,  0.9
   564, 'BUS 564     ',       220, 2,    0,    5, 1,    1.069817,  -47.078276,  1.1,  0.9,  1.1,  0.9
   575, 'BUS 575     ',       220, 1,    0,    5, 1,     1.04436,  -11.163788,  1.1,  0.9,  1.1,  0.9
   583, 'BUS 583     ',       220, 2,    0,    5, 1,    1.045397,  -15.568574,  1.1,  0.9,  1.1,  0.9
   594, 'BUS 594     ',       220, 1,    0,    5, 1,    1.036683,   -8.869667,  1.1,  0.9,  1.1,  0.9
   601, 'BUS 601     ',       220, 1,    0,    5, 1,    1.040685,  -14.418335,  1.1,  0.9,  1.1,  0.9
   604, 'BUS 604     ',       380, 1,    0,    5, 1,    0.996939,   -12.93567,  1.1,  0.9,  1.1,  0.9
   608, 'BUS 608     ',       220, 1,    0,    5, 1,    1.071753,   -32.66829,  1.1,  0.9,  1.1,  0.9
   609, 'BUS 609     ',       220, 1,    0,    5, 1,    1.025344,  -14.779536,  1.1,  0.9,  1.1,  0.9
   615, 'BUS 615     ',       220, 2,    0,    5, 1,    1.063876,  -10.607341,  1.1,  0.9,  1.1,  0.9
   616, 'BUS 616     ',       220, 2,    0,    5, 1,    1.048713,  -12.997468,  1.1,  0.9,  1.1,  0.9
   619, 'BUS 619     ',       220, 1,    0,    5, 1,    1.046742,  -25.252227,  1.1,  0.9,  1.1,  0.9
   639, 'BUS 639     ',       220, 2,    0,    5, 1,    1.051376,  -29.999643,  1.1,  0.9,  1.1,  0.9
   641, 'BUS 641     ',       220, 1,    0,    5, 1,     1.03515,  -13.956622,  1.1,  0.9,  1.1,  0.9
   658, 'BUS 658     ',       220, 1,    0,    5, 1,    1.033849,  -17.442414,  1.1,  0.9,  1.1,  0.9
   661, 'BUS 661     ',       380, 1,    0,    5, 1,    1.040021,    2.414523,  1.1,  0.9,  1.1,  0.9
   666, 'BUS 666     ',       380, 1,    0,    5, 1,     1.03076,   -5.413919,  1.1,  0.9,  1.1,  0.9
   678, 'BUS 678     ',       220, 1,    0,    5, 1,    0.986375,   -18.62447,  1.1,  0.9,  1.1,  0.9
   682, 'BUS 682     ',       220, 2,    0,    5, 1,      1.0691,  -10.045044,  1.1,  0.9,  1.1,  0.9
   687, 'BUS 687     ',       220, 1,    0,    5, 1,     1.05742,   -4.068613,  1.1,  0.9,  1.1,  0.9
   707, 'BUS 707     ',       220, 1,    0,    5, 1,    1.054495,  -25.620212,  1.1,  0.9,  1.1,  0.9
   718, 'BUS 718     ',       220, 1,    0,    5, 1,    1.031148,  -24.884639,  1.1,  0.9,  1.1,  0.9
   720, 'BUS 720     ',       380, 1,    0,    5, 1,    0.981824,  -26.763103,  1.1,  0.9,  1.1,  0.9
   726, 'BUS 726     ',       220, 1,    0,    5, 1,    1.048069,   -4.933448,  1.1,  0.9,  1.1,  0.9
   742, 'BUS 742     ',       220, 1,    0,    5, 1,     1.05759,   -4.070122,  1.1,  0.9,  1.1,  0.9
   747, 'BUS 747     ',       220, 1,    0,    5, 1,    1.073922,  -26.380554,  1.1,  0.9,  1.1,  0.9
   749, 'BUS 749     ',       220, 2,    0,    5, 1,    1.057884,  -28.950791,  1.1,  0.9,  1.1,  0.9
   750, 'BUS 750     ',       220, 1,    0,    5, 1,    1.041141,  -24.444747,  1.1,  0.9,  1.1,  0.9
   757, 'BUS 757     ',       380, 2,    0,    5, 1,    1.017567,  -13.765564,  1.1,  0.9,  1.1,  0.9
   766, 'BUS 766     ',       220, 1,    0,    5, 1,    1.047952,    -19.8489,  1.1,  0.9,  1.1,  0.9
   769, 'BUS 769     ',       220, 1,    0,    5, 1,    1.024104,  -10.886119,  1.1,  0.9,  1.1,  0.9
   772, 'BUS 772     ',       220, 1,    0,    5, 1,    1.034361,  -14.167643,  1.1,  0.9,  1.1,  0.9
   776, 'BUS 776     ',       220, 2,    0,    5, 1,    1.026368,  -13.331099,  1.1,  0.9,  1.1,  0.9
   778, 'BUS 778     ',       220, 2,    0,    5, 1,    1.049411,   -6.680953,  1.1,  0.9,  1.1,  0.9
   789, 'BUS 789     ',       220, 1,    0,    5, 1,    1.051689,   -5.954643,  1.1,  0.9,  1.1,  0.9
   795, 'BUS 795     ',       220, 2,    0,    5, 1,    1.035522,  -15.484388,  1.1,  0.9,  1.1,  0.9
   800, 'BUS 800     ',       220, 1,    0,    5, 1,    1.034778,  -12.128589,  1.1,  0.9,  1.1,  0.9
   803, 'BUS 803     ',       220, 2,    0,    5, 1,    1.041369,  -24.768342,  1.1,  0.9,  1.1,  0.9
   804, 'BUS 804     ',       220, 1,    0,    5, 1,     1.05585,   -7.563603,  1.1,  0.9,  1.1,  0.9
   805, 'BUS 805     ',       220, 1,    0,    5, 1,     1.05673,   -11.12828,  1.1,  0.9,  1.1,  0.9
   809, 'BUS 809     ',       380, 1,    0,    5, 1,    1.027525,   -0.064839,  1.1,  0.9,  1.1,  0.9
   819, 'BUS 819     ',       220, 1,    0,    5, 1,    1.052169,   -0.720463,  1.1,  0.9,  1.1,  0.9
   823, 'BUS 823     ',       380, 2,    0,    5, 1,    1.044097,   -2.229251,  1.1,  0.9,  1.1,  0.9
   839, 'BUS 839     ',       380, 1,    0,    5, 1,    1.024385,   -1.386321,  1.1,  0.9,  1.1,  0.9
   851, 'BUS 851     ',       220, 2,    0,    5, 1,     1.00025,  -17.401395,  1.1,  0.9,  1.1,  0.9
   858, 'BUS 858     ',       380, 2,    0,    5, 1,    1.031745,    1.110134,  1.1,  0.9,  1.1,  0.9
   870, 'BUS 870     ',       220, 1,    0,    5, 1,    1.040762,  -24.602002,  1.1,  0.9,  1.1,  0.9
   871, 'BUS 871     ',       220, 1,    0,    5, 1,    1.056945,  -11.955754,  1.1,  0.9,  1.1,  0.9
   883, 'BUS 883     ',       220, 1,    0,    5, 1,    1.017176,  -10.133417,  1.1,  0.9,  1.1,  0.9
   891, 'BUS 891     ',       380, 2,    0,    5, 1,    1.064525,   -18.97841,  1.1,  0.9,  1.1,  0.9
   892, 'BUS 892     ',       220, 1,    0,    5, 1,    1.069234,   -34.99461,  1.1,  0.9,  1.1,  0.9
   900, 'BUS 900     ',       220, 1,    0,    5, 1,    1.050278,  -15.385577,  1.1,  0.9,  1.1,  0.9
   903, 'BUS 903     ',       220, 1,    0,    5, 1,    1.073885,  -26.405705,  1.1,  0.9,  1.1,  0.9
   905, 'BUS 905     ',       380, 1,    0,    5, 1,    1.035643,  -15.075813,  1.1,  0.9,  1.1,  0.9
   907, 'BUS 907     ',       220, 1,    0,    5, 1,    1.038555,   -9.767436,  1.1,  0.9,  1.1,  0.9
   908, 'BUS 908     ',       220, 1,    0,    5, 1,    1.065214,   -7.929625,  1.1,  0.9,  1.1,  0.9
   920, 'BUS 920     ',       220, 1,    0,    5, 1,    1.045537,  -20.769903,  1.1,  0.9,  1.1,  0.9
   923, 'BUS 923     ',       220, 1,    0,    5, 1,    1.035596,  -23.090183,  1.1,  0.9,  1.1,  0.9
   933, 'BUS 933     ',       220, 1,    0,    5, 1,    1.019946,  -21.525393,  1.1,  0.9,  1.1,  0.9
   935, 'BUS 935     ',       220, 1,    0,    5, 1,    1.049182,  -24.470238,  1.1,  0.9,  1.1,  0.9
   953, 'BUS 953     ',       380, 1,    0,    5, 1,    1.065973,  -13.014498,  1.1,  0.9,  1.1,  0.9
   954, 'BUS 954     ',       220, 1,    0,    5, 1,    1.044324,  -21.525875,  1.1,  0.9,  1.1,  0.9
   960, 'BUS 960     ',       380, 1,    0,    5, 1,    1.063295,   -9.078724,  1.1,  0.9,  1.1,  0.9
   964, 'BUS 964     ',       380, 1,    0,    5, 1,    1.015553,  -11.659761,  1.1,  0.9,  1.1,  0.9
   972, 'BUS 972     ',       380, 2,    0,    5, 1,    1.072621,     5.35893,  1.3,  0.7,  1.3,  0.7
   980, 'BUS 980     ',       220, 1,    0,    5, 1,    1.047164,  -25.138433,  1.1,  0.9,  1.1,  0.9
  1001, 'BUS 1001    ',       220, 2,    0,    5, 1,    1.074143,   -33.62199,  1.1,  0.9,  1.1,  0.9
  1002, 'BUS 1002    ',       220, 2,    0,    5, 1,    1.041506,  -20.086455,  1.1,  0.9,  1.1,  0.9
  1005, 'BUS 1005    ',       220, 1,    0,    5, 1,    1.053955,  -12.379476,  1.1,  0.9,  1.1,  0.9
  1015, 'BUS 1015    ',       220, 1,    0,    5, 1,    1.056277,   -5.398682,  1.1,  0.9,  1.1,  0.9
  1026, 'BUS 1026    ',       220, 1,    0,    5, 1,    1.028182,  -29.352232,  1.1,  0.9,  1.1,  0.9
  1027, 'BUS 1027    ',       380, 1,    0,    5, 1,    0.990542,  -18.181223,  1.1,  0.9,  1.1,  0.9
  1033, 'BUS 1033    ',       220, 1,    0,    5, 1,    1.040934,  -24.521854,  1.1,  0.9,  1.1,  0.9
  1035, 'BUS 1035    ',       220, 1,    0,    5, 1,    1.067815,  -32.322562,  1.1,  0.9,  1.1,  0.9
  1039, 'BUS 1039    ',       220, 1,    0,    5, 1,    1.034441,  -19.543294,  1.1,  0.9,  1.1,  0.9
  1040, 'BUS 1040    ',       220, 1,    0,    5, 1,    1.038913,   -9.027471,  1.1,  0.9,  1.1,  0.9
  1043, 'BUS 1043    ',       380, 2,    0,    5, 1,    1.028946,   -3.693426,  1.1,  0.9,  1.1,  0.9
  1051, 'BUS 1051    ',       220, 1,    0,    5, 1,    1.041627,  -12.829065,  1.1,  0.9,  1.1,  0.9
  1077, 'BUS 1077    ',       220, 1,    0,    5, 1,    1.035206,  -12.094658,  1.1,  0.9,  1.1,  0.9
  1078, 'BUS 1078    ',       220, 1,    0,    5, 1,    1.061509,   -3.472987,  1.1,  0.9,  1.1,  0.9
  1081, 'BUS 1081    ',       380, 1,    0,    5, 1,    1.038644,  -10.509999,  1.1,  0.9,  1.1,  0.9
  1083, 'BUS 1083    ',       220, 2,    0,    5, 1,    1.049472,   -8.613737,  1.1,  0.9,  1.1,  0.9
  1090, 'BUS 1090    ',       220, 1,    0,    5, 1,      1.0101,  -21.692579,  1.1,  0.9,  1.1,  0.9
  1093, 'BUS 1093    ',       380, 2,    0,    5, 1,    1.027056,   -8.507308,  1.1,  0.9,  1.1,  0.9
  1096, 'BUS 1096    ',       220, 1,    0,    5, 1,    1.050189,   -1.116839,  1.1,  0.9,  1.1,  0.9
  1100, 'BUS 1100    ',       220, 2,    0,    5, 1,    1.042801,   -4.348181,  1.1,  0.9,  1.1,  0.9
  1101, 'BUS 1101    ',       220, 1,    0,    5, 1,    1.033508,  -14.209132,  1.1,  0.9,  1.1,  0.9
  1102, 'BUS 1102    ',       220, 2,    0,    5, 1,    1.049879,    -6.64195,  1.1,  0.9,  1.1,  0.9
  1105, 'BUS 1105    ',       220, 1,    0,    5, 1,    1.074759,  -26.325932,  1.1,  0.9,  1.1,  0.9
  1111, 'BUS 1111    ',       220, 1,    0,    5, 1,    1.036823,   -8.871578,  1.1,  0.9,  1.1,  0.9
  1129, 'BUS 1129    ',       220, 1,    0,    5, 1,    1.003325,  -22.532961,  1.1,  0.9,  1.1,  0.9
  1136, 'BUS 1136    ',       220, 1,    0,    5, 1,    1.034786,  -18.539009,  1.1,  0.9,  1.1,  0.9
  1137, 'BUS 1137    ',       220, 1,    0,    5, 1,    1.048666,   -24.42816,  1.1,  0.9,  1.1,  0.9
  1146, 'BUS 1146    ',       220, 1,    0,    5, 1,    1.032638,   -5.627486,  1.1,  0.9,  1.1,  0.9
  1151, 'BUS 1151    ',       220, 1,    0,    5, 1,    1.043354,  -20.606997,  1.1,  0.9,  1.1,  0.9
  1153, 'BUS 1153    ',       220, 1,    0,    5, 1,    1.034654,   -6.058841,  1.1,  0.9,  1.1,  0.9
  1156, 'BUS 1156    ',       220, 1,    0,    5, 1,    1.038055,  -22.501868,  1.1,  0.9,  1.1,  0.9
  1159, 'BUS 1159    ',       220, 1,    0,    5, 1,    1.052615,  -36.244174,  1.1,  0.9,  1.1,  0.9
  1172, 'BUS 1172    ',       220, 1,    0,    5, 1,    1.074468,   -25.55724,  1.1,  0.9,  1.1,  0.9
  1179, 'BUS 1179    ',       220, 1,    0,    5, 1,    1.040896,   -2.802576,  1.1,  0.9,  1.1,  0.9
  1183, 'BUS 1183    ',       220, 1,    0,    5, 1,    1.066643,  -33.081849,  1.1,  0.9,  1.1,  0.9
  1187, 'BUS 1187    ',       220, 1,    0,    5, 1,    1.039857,   -4.955282,  1.1,  0.9,  1.1,  0.9
  1188, 'BUS 1188    ',       220, 1,    0,    5, 1,    1.054495,  -14.222981,  1.1,  0.9,  1.1,  0.9
  1194, 'BUS 1194    ',       380, 1,    0,    5, 1,     1.03896,  -15.127161,  1.1,  0.9,  1.1,  0.9
  1198, 'BUS 1198    ',       380, 1,    0,    5, 1,    0.987964,  -14.637206,  1.1,  0.9,  1.1,  0.9
  1201, 'BUS 1201    ',       220, 1,    0,    5, 1,    1.050304,  -19.627666,  1.1,  0.9,  1.1,  0.9
  1216, 'BUS 1216    ',       220, 1,    0,    5, 1,    1.040626,  -10.966354,  1.1,  0.9,  1.1,  0.9
  1233, 'BUS 1233    ',       220, 1,    0,    5, 1,    1.037981,  -22.526704,  1.1,  0.9,  1.1,  0.9
  1234, 'BUS 1234    ',       220, 1,    0,    5, 1,    1.022628,  -16.524518,  1.1,  0.9,  1.1,  0.9
  1237, 'BUS 1237    ',       380, 2,    0,    5, 1,    1.108028,   -6.285992,  1.3,  0.7,  1.3,  0.7
  1248, 'BUS 1248    ',       220, 1,    0,    5, 1,    1.047205,  -10.673893,  1.1,  0.9,  1.1,  0.9
  1249, 'BUS 1249    ',       380, 1,    0,    5, 1,    1.019402,   -11.26449,  1.1,  0.9,  1.1,  0.9
  1251, 'BUS 1251    ',       380, 2,    0,    5, 1,    1.027102,   -8.516785,  1.1,  0.9,  1.1,  0.9
  1262, 'BUS 1262    ',       220, 1,    0,    5, 1,    1.038607,  -22.034538,  1.1,  0.9,  1.1,  0.9
  1265, 'BUS 1265    ',       220, 1,    0,    5, 1,    1.066705,  -50.057306,  1.1,  0.9,  1.1,  0.9
  1275, 'BUS 1275    ',       220, 1,    0,    5, 1,    1.032647,  -18.856368,  1.1,  0.9,  1.1,  0.9
  1295, 'BUS 1295    ',       220, 2,    0,    5, 1,     1.03682,   -8.643487,  1.1,  0.9,  1.1,  0.9
  1301, 'BUS 1301    ',       220, 1,    0,    5, 1,     1.05167,  -28.720012,  1.1,  0.9,  1.1,  0.9
  1305, 'BUS 1305    ',       220, 1,    0,    5, 1,    1.038253,  -22.269637,  1.1,  0.9,  1.1,  0.9
  1311, 'BUS 1311    ',       380, 1,    0,    5, 1,    1.033986,  -21.654604,  1.1,  0.9,  1.1,  0.9
  1326, 'BUS 1326    ',       220, 1,    0,    5, 1,    1.069384,  -34.995605,  1.1,  0.9,  1.1,  0.9
  1334, 'BUS 1334    ',       220, 1,    0,    5, 1,    1.025188,  -16.314102,  1.1,  0.9,  1.1,  0.9
  1341, 'BUS 1341    ',       220, 2,    0,    5, 1,    1.032899,  -14.204982,  1.1,  0.9,  1.1,  0.9
  1343, 'BUS 1343    ',       380, 1,    0,    5, 1,    0.996377,  -14.200565,  1.1,  0.9,  1.1,  0.9
  1354, 'BUS 1354    ',       220, 2,    0,    5, 1,    1.041045,   -7.375163,  1.1,  0.9,  1.1,  0.9
  1355, 'BUS 1355    ',       380, 1,    0,    5, 1,      1.0328,   -8.554156,  1.1,  0.9,  1.1,  0.9
  1364, 'BUS 1364    ',       220, 1,    0,    5, 1,    1.039851,  -12.092524,  1.1,  0.9,  1.1,  0.9
  1380, 'BUS 1380    ',       220, 1,    0,    5, 1,    1.033661,  -22.574327,  1.1,  0.9,  1.1,  0.9
  1394, 'BUS 1394    ',       220, 1,    0,    5, 1,    1.074659,  -26.314245,  1.1,  0.9,  1.1,  0.9
  1397, 'BUS 1397    ',       220, 1,    0,    5, 1,    1.037924,  -12.820941,  1.1,  0.9,  1.1,  0.9
  1398, 'BUS 1398    ',       220, 1,    0,    5, 1,    1.017322,  -19.003234,  1.1,  0.9,  1.1,  0.9
  1401, 'BUS 1401    ',       220, 1,    0,    5, 1,    1.038647,  -14.758146,  1.1,  0.9,  1.1,  0.9
...
0 / END OF BUS DATA, BEGIN LOAD DATA
     3,  1, 1,    0,    5,       151,      48.8, 0, 0, 0, 0, 1, 1, 0
     4,  1, 1,    0,    5,    171.41,      23.4, 0, 0, 0, 0, 1, 1, 0
    10,  1, 1,    0,    5,       134,      24.7, 0, 0, 0, 0, 1, 1, 0
    21,  1, 1,    0,    5,     161.2,      39.3, 0, 0, 0, 0, 1, 1, 0
    26,  1, 1,    0,    5,     167.3,      54.8, 0, 0, 0, 0, 1, 1, 0
    29,  1, 1,    0,    5,     152.9,      49.4, 0, 0, 0, 0, 1, 1, 0
    53,  1, 1,    0,    5,     48.65,      16.1, 0, 0, 0, 0, 1, 1, 0
    59,  1, 1,    0,    5,     119.2,      20.7, 0, 0, 0, 0, 1, 1, 0
    90,  1, 1,    0,    5,    363.25,    115.39, 0, 0, 0, 0, 1, 1, 0
    96,  1, 1,    0,    5,      -8.4,     28.66, 0, 0, 0, 0, 1, 1, 0
   118,  1, 1,    0,    5,    704.53,    -35.33, 0, 0, 0, 0, 1, 1, 0
   128,  1, 1,    0,    5,     23.73,      12.7, 0, 0, 0, 0, 1, 1, 0
   145,  1, 1,    0,    5,     38.34,       5.6, 0, 0, 0, 0, 1, 1, 0
   148,  1, 1,    0,    5,     32.34,        12, 0, 0, 0, 0, 1, 1, 0
   163,  1, 1,    0,    5,    147.76,     32.73, 0, 0, 0, 0, 1, 1, 0
   171,  1, 1,    0,    5,     100.8,      13.2, 0, 0, 0, 0, 1, 1, 0
   174,  1, 1,    0,    5,     370.5,       -17, 0, 0, 0, 0, 1, 1, 0
   188,  1, 1,    0,    5,     36.84,      13.9, 0, 0, 0, 0, 1, 1, 0
   195,  1, 1,    0,    5,     73.14,     21.55, 0, 0, 0, 0, 1, 1, 0
   198,  1, 1,    0,    5,     39.74,      11.8, 0, 0, 0, 0, 1, 1, 0
   207,  1, 1,    0,    5,    321.98,      84.4, 0, 0, 0, 0, 1, 1, 0
   216,  1, 1,    0,    5,     155.6,      54.7, 0, 0, 0, 0, 1, 1, 0
   217,  1, 1,    0,    5,     105.2,       0.1, 0, 0, 0, 0, 1, 1, 0
   218,  1, 1,    0,    5,     69.83,     15.12, 0, 0, 0, 0, 1, 1, 0
   280,  1, 1,    0,    5,     119.6,      29.6, 0, 0, 0, 0, 1, 1, 0
   283,  1, 1,    0,    5,     27.33,      11.9, 0, 0, 0, 0, 1, 1, 0
   292,  1, 1,    0,    5,     13.82,       1.4, 0, 0, 0, 0, 1, 1, 0
   305,  1, 1,    0,    5,       103,        12, 0, 0, 0, 0, 1, 1, 0
   314,  1, 1,    0,    5,     163.1,      46.3, 0, 0, 0, 0, 1, 1, 0
   333,  1, 1,    0,    5,     524.5,        43, 0, 0, 0, 0, 1, 1, 0
   346,  1, 1,    0,    5,     197.5,      48.3, 0, 0, 0, 0, 1, 1, 0
   350,  1, 1,    0,    5,     110.4,      26.2, 0, 0, 0, 0, 1, 1, 0
   367,  1, 1,    0,    5,     65.17,     -51.5, 0, 0, 0, 0, 1, 1, 0
   401,  1, 1,    0,    5,      56.5,     36.29, 0, 0, 0, 0, 1, 1, 0
   408,  1, 1,    0,    5,     129.1,       7.4, 0, 0, 0, 0, 1, 1, 0
   410,  1, 1,    0,    5,    170.89,     50.38, 0, 0, 0, 0, 1, 1, 0
   416,  1, 1,    0,    5,     70.68,      13.5, 0, 0, 0, 0, 1, 1, 0
   426,  1, 1,    0,    5,     123.1,       6.5, 0, 0, 0, 0, 1, 1, 0
   455,  1, 1,    0,    5,    274.32,      5.66, 0, 0, 0, 0, 1, 1, 0
   490,  1, 1,    0,    5,     20.52,         4, 0, 0, 0, 0, 1, 1, 0
   500,  1, 1,    0,    5,     144.4,      35.5, 0, 0, 0, 0, 1, 1, 0
   513,  1, 1,    0,    5,     57.46,      17.1, 0, 0, 0, 0, 1, 1, 0
   520,  1, 1,    0,    5,     118.5,      20.4, 0, 0, 0, 0, 1, 1, 0
   556,  1, 1,    0,    5,     16.52,         9, 0, 0, 0, 0, 1, 1, 0
   594,  1, 1,    0,    5,     67.57,        17, 0, 0, 0, 0, 1, 1, 0
   601,  1, 1,    0,    5,     140.6,      42.6, 0, 0, 0, 0, 1, 1, 0
   604,  1, 1,    0,    5,     33.24,       4.4, 0, 0, 0, 0, 1, 1, 0
   608,  1, 1,    0,    5,     150.9,      10.4, 0, 0, 0, 0, 1, 1, 0
   619,  1, 1,    0,    5,     72.88,      14.4, 0, 0, 0, 0, 1, 1, 0
   641,  1, 1,    0,    5,     45.32,      18.5, 0, 0, 0, 0, 1, 1, 0
   658,  1, 1,    0,    5,     258.4,      66.7, 0, 0, 0, 0, 1, 1, 0
   666,  1, 1,    0,    5,     -5.61,     -2.79, 0, 0, 0, 0, 1, 1, 0
   678,  1, 1,    0,    5,     232.1,      89.8, 0, 0, 0, 0, 1, 1, 0
   707,  1, 1,    0,    5,     83.99,      21.2, 0, 0, 0, 0, 1, 1, 0
   718,  1, 1,    0,    5,    135.11,        41, 0, 0, 0, 0, 1, 1, 0
   726,  1, 1,    0,    5,     400.3,     189.9, 0, 0, 0, 0, 1, 1, 0
   747,  1, 1,    0,    5,     69.58,        16, 0, 0, 0, 0, 1, 1, 0
   769,  1, 1,    0,    5,    152.57,        40, 0, 0, 0, 0, 1, 1, 0
   772,  1, 1,    0,    5,     343.9,     141.9, 0, 0, 0, 0, 1, 1, 0
   800,  1, 1,    0,    5,     50.56,        18, 0, 0, 0, 0, 1, 1, 0
   805,  1, 1,    0,    5,     124.5,      29.6, 0, 0, 0, 0, 1, 1, 0
   870,  1, 1,    0,    5,       110,       3.4, 0, 0, 0, 0, 1, 1, 0
   871,  1, 1,    0,    5,    108.89,    -21.76, 0, 0, 0, 0, 1, 1, 0
   883,  1, 1,    0,    5,     192.5,      78.3, 0, 0, 0, 0, 1, 1, 0
   903,  1, 1,    0,    5,     82.69,      20.1, 0, 0, 0, 0, 1, 1, 0
   905,  1, 1,    0,    5,    631.71,    -54.16, 0, 0, 0, 0, 1, 1, 0
   908,  1, 1,    0,    5,     125.9,      -0.5, 0, 0, 0, 0, 1, 1, 0
   920,  1, 1,    0,    5,     34.44,       8.5, 0, 0, 0, 0, 1, 1, 0
   923,  1, 1,    0,    5,     62.07,      14.7, 0, 0, 0, 0, 1, 1, 0
   953,  1, 1,    0,    5,     108.7,    -12.15, 0, 0, 0, 0, 1, 1, 0
   954,  1, 1,    0,    5,     66.27,      13.6, 0, 0, 0, 0, 1, 1, 0
   964,  1, 1,    0,    5,      88.5,      16.5, 0, 0, 0, 0, 1, 1, 0
   980,  1, 1,    0,    5,     14.71,       4.6, 0, 0, 0, 0, 1, 1, 0
  1015,  1, 1,    0,    5,     44.55,         0, 0, 0, 0, 0, 1, 1, 0
  1026,  1, 1,    0,    5,     201.4,        53, 0, 0, 0, 0, 1, 1, 0
  1027,  1, 1,    0,    5,     -5.91,     -2.33, 0, 0, 0, 0, 1, 1, 0
  1033,  1, 1,    0,    5,     26.33,       5.3, 0, 0, 0, 0, 1, 1, 0
  1035,  1, 1,    0,    5,     382.5,      57.9, 0, 0, 0, 0, 1, 1, 0
  1039,  1, 1,    0,    5,     34.64,        -0, 0, 0, 0, 0, 1, 1, 0
  1040,  1, 1,    0,    5,     31.94,       8.8, 0, 0, 0, 0, 1, 1, 0
  1081,  1, 1,    0,    5,    277.86,     58.95, 0, 0, 0, 0, 1, 1, 0
  1090,  1, 1,    0,    5,     56.06,      18.7, 0, 0, 0, 0, 1, 1, 0
  1105,  1, 1,    0,    5,     29.83,       7.3, 0, 0, 0, 0, 1, 1, 0
  1129,  1, 1,    0,    5,    190.47,     55.03, 0, 0, 0, 0, 1, 1, 0
  1136,  1, 1,    0,    5,     16.22,         2, 0, 0, 0, 0, 1, 1, 0
  1146,  1, 1,    0,    5,     32.84,        -0, 0, 0, 0, 0, 1, 1, 0
  1153,  1, 1,    0,    5,     12.41,       3.9, 0, 0, 0, 0, 1, 1, 0
  1156,  1, 1,    0,    5,     65.67,        24, 0, 0, 0, 0, 1, 1, 0
  1159,  1, 1,    0,    5,     112.4,        13, 0, 0, 0, 0, 1, 1, 0
  1179,  1, 1,    0,    5,      86.6,      23.4, 0, 0, 0, 0, 1, 1, 0
  1183,  1, 1,    0,    5,     199.4,     -19.9, 0, 0, 0, 0, 1, 1, 0
  1187,  1, 1,    0,    5,     67.57,      21.2, 0, 0, 0, 0, 1, 1, 0
  1188,  1, 1,    0,    5,     30.93,       6.6, 0, 0, 0, 0, 1, 1, 0
  1194,  1, 1,    0,    5,     129.6,      13.3, 0, 0, 0, 0, 1, 1, 0
  1201,  1, 1,    0,    5,     114.1,      23.5, 0, 0, 0, 0, 1, 1, 0
  1234,  1, 1,    0,    5,     71.78,      17.9, 0, 0, 0, 0, 1, 1, 0
  1249,  1, 1,    0,    5,    348.93,     26.47, 0, 0, 0, 0, 1, 1, 0
  1265,  1, 1,    0,    5,       173,     -21.3, 0, 0, 0, 0, 1, 1, 0
  1275,  1, 1,    0,    5,     52.46,       2.9, 0, 0, 0, 0, 1, 1, 0
  1301,  1, 1,    0,    5,       479,      99.2, 0, 0, 0, 0, 1, 1, 0
  1311,  1, 1,    0,    5,     37.94,      15.2, 0, 0, 0, 0, 1, 1, 0
  1355,  1, 1,    0,    5,     -3.29,     -1.32, 0, 0, 0, 0, 1, 1, 0
  1364,  1, 1,    0,    5,     40.85,      14.5, 0, 0, 0, 0, 1, 1, 0
  1380,  1, 1,    0,    5,     145.2,      21.4, 0, 0, 0, 0, 1, 1, 0
  1394,  1, 1,    0,    5,     30.93,       7.6, 0, 0, 0, 0, 1, 1, 0
  1398,  1, 1,    0,    5,     196.7,      44.2, 0, 0, 0, 0, 1, 1, 0
  1401,  1, 1,    0,    5,     11.91,       2.9, 0, 0, 0, 0, 1, 1, 0
  1414,  1, 1,    0,    5,     144.7,      20.3, 0, 0, 0, 0, 1, 1, 0
  1465,  1, 1,    0,    5,    -11.03,     -5.11, 0, 0, 0, 0, 1, 1, 0
  1486,  1, 1,    0,    5,     79.59,      18.8, 0, 0, 0, 0, 1, 1, 0
  1494,  1, 1,    0,    5,     -1.85,     -1.63, 0, 0, 0, 0, 1, 1, 0
  1526,  1, 1,    0,    5,    -10.86,     -5.93, 0, 0, 0, 0, 1, 1, 0
  1538,  1, 1,    0,    5,     36.34,      15.2, 0, 0, 0, 0, 1, 1, 0
  1539,  1, 1,    0,    5,     73.58,      3.24, 0, 0, 0, 0, 1, 1, 0
  1541,  1, 1,    0,    5,     125.4,      45.8, 0, 0, 0, 0, 1, 1, 0
  1545,  1, 1,    0,    5,     42.55,       8.2, 0, 0, 0, 0, 1, 1, 0
  1552,  1, 1,    0,    5,     20.42,       8.1, 0, 0, 0, 0, 1, 1, 0
  1562,  1, 1,    0,    5,     77.39,      24.1, 0, 0, 0, 0, 1, 1, 0
  1566,  1, 1,    0,    5,     156.9,        -4, 0, 0, 0, 0, 1, 1, 0
  1568,  1, 1,    0,    5,     69.08,      21.5, 0, 0, 0, 0, 1, 1, 0
  1592,  1, 1,    0,    5,     28.33,      44.8, 0, 0, 0, 0, 1, 1, 0
  1595,  1, 1,    0,    5,     71.77,     13.57, 0, 0, 0, 0, 1, 1, 0
  1607,  1, 1,    0,    5,     73.78,        -0, 0, 0, 0, 0, 1, 1, 0
  1625,  1, 1,    0,    5,     73.18,      22.3, 0, 0, 0, 0, 1, 1, 0
  1629,  1, 1,    0,    5,     41.95,       8.5, 0, 0, 0, 0, 1, 1, 0
  1643,  1, 1,    0,    5,     95.71,      25.9, 0, 0, 0, 0, 1, 1, 0
  1644,  1, 1,    0,    5,    449.56,    245.72, 0, 0, 0, 0, 1, 1, 0
  1662,  1, 1,    0,    5,      3.67,     -1.86, 0, 0, 0, 0, 1, 1, 0
  1672,  1, 1,    0,    5,    -28.13,     -0.83, 0, 0, 0, 0, 1, 1, 0
  1692,  1, 1,    0,    5,     83.19,      25.8, 0, 0, 0, 0, 1, 1, 0
  1704,  1, 1,    0,    5,     62.16,         8, 0, 0, 0, 0, 1, 1, 0
  1709,  1, 1,    0,    5,    -15.38,     -4.94, 0, 0, 0, 0, 1, 1, 0
  1711,  1, 1,    0,    5,     25.13,     -61.6, 0, 0, 0, 0, 1, 1, 0
  1730,  1, 1,    0,    5,    -17.18,     -4.35, 0, 0, 0, 0, 1, 1, 0
  1750,  1, 1,    0,    5,     58.46,       6.6, 0, 0, 0, 0, 1, 1, 0
  1767,  1, 1,    0,    5,     333.5,      -1.4, 0, 0, 0, 0, 1, 1, 0
  1768,  1, 1,    0,    5,     73.98,      22.5, 0, 0, 0, 0, 1, 1, 0
  1798,  1, 1,    0,    5,     -0.63,     -0.83, 0, 0, 0, 0, 1, 1, 0
  1813,  1, 1,    0,    5,     88.92,     19.79, 0, 0, 0, 0, 1, 1, 0
  1817,  1, 1,    0,    5,    108.91,      33.7, 0, 0, 0, 0, 1, 1, 0
  1844,  1, 1,    0,    5,    -28.14,     -0.76, 0, 0, 0, 0, 1, 1, 0
  1860,  1, 1,    0,    5,      88.8,      -3.2, 0, 0, 0, 0, 1, 1, 0
  1866,  1, 1,    0,    5,     209.2,      23.5, 0, 0, 0, 0, 1, 1, 0
  1868,  1, 1,    0,    5,     11.71,       3.8, 0, 0, 0, 0, 1, 1, 0
  1883,  1, 1,    0,    5,     27.33,         5, 0, 0, 0, 0, 1, 1, 0
  1895,  1, 1,    0,    5,     20.82,        -0, 0, 0, 0, 0, 1, 1, 0
  1917,  1, 1,    0,    5,     197.5,       -31, 0, 0, 0, 0, 1, 1, 0
  1923,  1, 1,    0,    5,    192.11,      45.5, 0, 0, 0, 0, 1, 1, 0
  1965,  1, 1,    0,    5,     248.7,       8.1, 0, 0, 0, 0, 1, 1, 0
  1973,  1, 1,    0,    5,     210.1,      66.2, 0, 0, 0, 0, 1, 1, 0
  1980,  1, 1,    0,    5,     177.3,      36.4, 0, 0, 0, 0, 1, 1, 0
  1998,  1, 1,    0,    5,     25.73,       7.3, 0, 0, 0, 0, 1, 1, 0
  2012,  1, 1,    0,    5,     41.45,       4.9, 0, 0, 0, 0, 1, 1, 0
  2019,  1, 1,    0,    5,     72.08,      21.3, 0, 0, 0, 0, 1, 1, 0
  2021,  1, 1,    0,    5,       3.9,         1, 0, 0, 0, 0, 1, 1, 0
  2042,  1, 1,    0,    5,     14.02,       6.5, 0, 0, 0, 0, 1, 1, 0
  2043,  1, 1,    0,    5,       3.2,       1.7, 0, 0, 0, 0, 1, 1, 0
  2057,  1, 1,    0,    5,     120.2,      20.5, 0, 0, 0, 0, 1, 1, 0
  2072,  1, 1,    0,    5,     101.2,       2.1, 0, 0, 0, 0, 1, 1, 0
  2078,  1, 1,    0,    5,     77.19,      18.6, 0, 0, 0, 0, 1, 1, 0
  2083,  1, 1,    0,    5,     121.4,      20.2, 0, 0, 0, 0, 1, 1, 0
  2089,  1, 1,    0,    5,    199.86,     56.93, 0, 0, 0, 0, 1, 1, 0
  2093,  1, 1,    0,    5,     -5.64,     -2.84, 0, 0, 0, 0, 1, 1, 0
  2128,  1, 1,    0,    5,     79.09,      18.7, 0, 0, 0, 0, 1, 1, 0
  2132,  1, 1,    0,    5,     107.3,      14.2, 0, 0, 0, 0, 1, 1, 0
  2155,  1, 1,    0,    5,     63.67,      20.2, 0, 0, 0, 0, 1, 1, 0
  2161,  1, 1,    0,    5,     35.66,     -9.39, 0, 0, 0, 0, 1, 1, 0
  2166,  1, 1,    0,    5,     20.92,       7.7, 0, 0, 0, 0, 1, 1, 0
  2208,  1, 1,    0,    5,     74.98,      26.9, 0, 0, 0, 0, 1, 1, 0
  2252,  1, 1,    0,    5,     100.7,      -4.2, 0, 0, 0, 0, 1, 1, 0
  2273,  1, 1,    0,    5,     141.3,      32.4, 0, 0, 0, 0, 1, 1, 0
  2286,  1, 1,    0,    5,    208.88,      60.8, 0, 0, 0, 0, 1, 1, 0
  2288,  1, 1,    0,    5,     170.9,        39, 0, 0, 0, 0, 1, 1, 0
  2304,  1, 1,    0,    5,      88.7,      -0.1, 0, 0, 0, 0, 1, 1, 0
  2308,  1, 1,    0,    5,     32.04,       6.6, 0, 0, 0, 0, 1, 1, 0
  2319,  1, 1,    0,    5,     39.64,      20.9, 0, 0, 0, 0, 1, 1, 0
  2327,  1, 1,    0,    5,     114.5,      25.2, 0, 0, 0, 0, 1, 1, 0
  2337,  1, 1,    0,    5,     103.4,        27, 0, 0, 0, 0, 1, 1, 0
  2340,  1, 1,    0,    5,     96.91,      13.9, 0, 0, 0, 0, 1, 1, 0
  2360,  1, 1,    0,    5,     215.5,      31.3, 0, 0, 0, 0, 1, 1, 0
  2361,  1, 1,    0,    5,      16.9,      3.85, 0, 0, 0, 0, 1, 1, 0
  2365,  1, 1,    0,    5,     37.94,      15.4, 0, 0, 0, 0, 1, 1, 0
  2377,  1, 1,    0,    5,     101.7,      17.6, 0, 0, 0, 0, 1, 1, 0
  2393,  1, 1,    0,    5,     20.82,         0, 0, 0, 0, 0, 1, 1, 0
  2424,  1, 1,    0,    5,     44.55,      16.8, 0, 0, 0, 0, 1, 1, 0
  2432,  1, 1,    0,    5,     291.2,      35.4, 0, 0, 0, 0, 1, 1, 0
  2457,  1, 1,    0,    5,     30.73,       9.6, 0, 0, 0, 0, 1, 1, 0
  2458,  1, 1,    0,    5,       132,        26, 0, 0, 0, 0, 1, 1, 0
  2479,  1, 1,    0,    5,     -2.65,     -1.17, 0, 0, 0, 0, 1, 1, 0
  2510,  1, 1,    0,    5,    115.87,     29.41, 0, 0, 0, 0, 1, 1, 0
  2518,  1, 1,    0,    5,     -5.29,     -1.91, 0, 0, 0, 0, 1, 1, 0
  2526,  1, 1,    0,    5,    238.45,     46.86, 0, 0, 0, 0, 1, 1, 0
  2527,  1, 1,    0,    5,     59.77,      16.7, 0, 0, 0, 0, 1, 1, 0
  2535,  1, 1,    0,    5,     51.56,       2.1, 0, 0, 0, 0, 1, 1, 0
  2558,  1, 1,    0,    5,    159.27,     38.31, 0, 0, 0, 0, 1, 1, 0
  2563,  1, 1,    0,    5,     52.86,        13, 0, 0, 0, 0, 1, 1, 0
  2575,  1, 1,    0,    5,     62.97,      17.4, 0, 0, 0, 0, 1, 1, 0
  2591,  1, 1,    0,    5,    253.77,      84.6, 0, 0, 0, 0, 1, 1, 0
  2597,  1, 1,    0,    5,     14.72,       5.4, 0, 0, 0, 0, 1, 1, 0
  2598,  1, 1,    0,    5,     25.63,      12.7, 0, 0, 0, 0, 1, 1, 0
...
0 / END OF LOAD DATA, BEGIN FIXED SHUNT DATA
     3, 1, 1,       0,    4.69
     4, 1, 1,       0,     2.1
    10, 1, 1,       0,   12.44
    21, 1, 1,       0,   30.71
    22, 1, 1,       0,    0.85
    26, 1, 1,       0,  110.54
    29, 1, 1,       0,   27.65
    44, 1, 1,       0,    7.27
    53, 1, 1,       0,    7.14
    58, 1, 1,       0,    2.31
    59, 1, 1,       0,    3.31
    90, 1, 1,       0,    3.95
    96, 1, 1,       0,    3.49
   113, 1, 1,       0, 6.53271
   115, 1, 1,       0,    4.21
   118, 1, 1,       0, 13.1028
   128, 1, 1,       0,    0.52
   145, 1, 1,       0,    7.64
   148, 1, 1,       0,     6.1
   163, 1, 1,       0,    8.34
   171, 1, 1,       0,    5.24
   174, 1, 1,       0,    9.91
   184, 1, 1,       0,    2.42
   188, 1, 1,       0,     3.3
   195, 1, 1,       0,    8.52
   196, 1, 1,       0,   12.48
   198, 1, 1,       0,    1.44
   207, 1, 1,       0,    1.34
   216, 1, 1,       0,    2.21
   217, 1, 1,       0,    7.36
   218, 1, 1,       0,    2.23
   225, 1, 1,       0,    1.15
   280, 1, 1,       0,    5.34
   283, 1, 1,       0,    1.17
   292, 1, 1,       0,     0.7
   305, 1, 1,       0,    0.63
   306, 1, 1,       0,    4.76
   314, 1, 1,       0,    10.6
   333, 1, 1,       0,    6.85
   346, 1, 1,       0,    0.71
   350, 1, 1,       0,    5.62
   367, 1, 1,       0,    4.85
   401, 1, 1,       0,    3.08
   408, 1, 1,       0,    0.04
   410, 1, 1,       0,    6.44
   416, 1, 1,       0,    6.96
   426, 1, 1,       0,    3.25
   432, 1, 1,       0, 68.5177
   444, 1, 1,       0,    2.45
   449, 1, 1,       0,   29.42
   455, 1, 1,       0,   13.24
   490, 1, 1,       0,    2.77
   500, 1, 1,       0,    7.66
   502, 1, 1,       0,    1.96
   506, 1, 1,       0,     0.4
   513, 1, 1,       0,    1.61
   520, 1, 1,       0,    2.57
   549, 1, 1,       0,    5.15
   554, 1, 1,       0,    1.97
   556, 1, 1,       0,    1.17
   561, 1, 1,       0,    0.32
   575, 1, 1,       0,    0.67
   594, 1, 1,       0,    5.75
   601, 1, 1,       0,    5.71
   604, 1, 1,       0,   24.54
   608, 1, 1,       0,    4.77
   609, 1, 1,       0,    5.67
   619, 1, 1,       0,    2.96
   641, 1, 1,       0,    0.74
   658, 1, 1,       0,    5.87
   661, 1, 1,       0,     0.6
   666, 1, 1,       0,  150.93
   678, 1, 1,       0,    0.09
   687, 1, 1,       0,     5.6
   707, 1, 1,       0,    5.36
   718, 1, 1,       0,    5.31
   720, 1, 1,       0, 23.5541
   726, 1, 1,       0,    0.53
   742, 1, 1,       0,    2.83
   747, 1, 1,       0,    3.03
   750, 1, 1,       0,   18.63
   766, 1, 1,       0,    7.85
   769, 1, 1,       0,    6.12
   772, 1, 1,       0,    5.55
   789, 1, 1,       0,    6.63
   800, 1, 1,       0,    0.11
   804, 1, 1,       0,    7.26
   805, 1, 1,       0,    15.4
   809, 1, 1,       0, 58.0887
   819, 1, 1,       0,    0.22
   839, 1, 1,       0, 8.17514
   870, 1, 1,       0,   11.95
   871, 1, 1,       0,    3.72
   883, 1, 1,       0,    6.65
   892, 1, 1,       0,     9.1
   900, 1, 1,       0,    0.15
   903, 1, 1,       0,    1.36
   905, 1, 1,       0, 7.53413
   907, 1, 1,       0,    0.05
   908, 1, 1,       0,    0.21
   920, 1, 1,       0,    1.11
   923, 1, 1,       0,    4.84
   933, 1, 1,       0,   22.75
   935, 1, 1,       0,    9.46
   953, 1, 1,       0,   37.11
   954, 1, 1,       0,    0.67
   960, 1, 1,       0, 108.729
   964, 1, 1,       0,  146.44
   980, 1, 1,       0,    7.88
  1005, 1, 1,       0,    0.81
  1015, 1, 1,       0,    4.78
  1026, 1, 1,       0,    9.67
  1027, 1, 1,       0, 30.3936
  1033, 1, 1,       0,    4.31
  1035, 1, 1,       0,    8.16
  1039, 1, 1,       0,    0.91
  1040, 1, 1,       0,    3.79
  1051, 1, 1,       0,    3.79
  1077, 1, 1,       0,     0.1
  1078, 1, 1,       0,    4.74
  1081, 1, 1,       0, 182.881
  1090, 1, 1,       0,    4.24
  1096, 1, 1,       0,    0.16
  1101, 1, 1,       0,    2.05
  1105, 1, 1,       0,    6.49
  1111, 1, 1,       0,     1.1
  1129, 1, 1,       0,     6.7
  1136, 1, 1,       0,    0.71
  1137, 1, 1,       0,    0.05
  1146, 1, 1,       0,    1.41
  1151, 1, 1,       0,   18.82
  1153, 1, 1,       0,    2.23
  1156, 1, 1,       0,    9.95
  1159, 1, 1,       0,    3.99
  1172, 1, 1,       0,     2.3
  1179, 1, 1,       0,    0.39
  1183, 1, 1,       0,    6.68
  1187, 1, 1,       0,    5.71
  1188, 1, 1,       0,    9.09
  1194, 1, 1,       0,   13.98
  1198, 1, 1,       0, 30.6377
  1201, 1, 1,       0,    1.08
  1216, 1, 1,       0,    4.93
  1233, 1, 1,       0,    1.72
  1234, 1, 1,       0,    1.96
  1248, 1, 1,       0,    1.17
  1249, 1, 1,       0,    9.36
  1262, 1, 1,       0,   10.73
  1265, 1, 1,       0,    5.93
  1275, 1, 1,       0,    0.35
  1301, 1, 1,       0,   10.68
  1305, 1, 1,       0,    4.34
  1311, 1, 1,       0,   35.31
  1326, 1, 1,       0,    0.98
  1334, 1, 1,       0,    0.59
  1343, 1, 1,       0,    58.3
  1355, 1, 1,       0, 190.705
  1364, 1, 1,       0,    0.59
  1380, 1, 1,       0,    1.09
  1394, 1, 1,       0,    4.69
  1397, 1, 1,       0,    2.14
  1398, 1, 1,       0,     0.1
  1401, 1, 1,       0,    5.27
  1414, 1, 1,       0,    6.35
  1415, 1, 1,       0,     0.3
  1435, 1, 1,       0,    3.85
  1448, 1, 1,       0,    9.49
  1459, 1, 1,       0,    3.38
  1462, 1, 1,       0,    0.42
  1465, 1, 1,       0, 29.7068
  1483, 1, 1,       0,    4.86
  1486, 1, 1,       0,    6.78
  1494, 1, 1,       0, 31.4246
  1502, 1, 1,       0, 37.1162
  1504, 1, 1,       0,    1.84
  1526, 1, 1,       0,   12.54
  1538, 1, 1,       0,     0.3
  1539, 1, 1,       0,   52.35
  1545, 1, 1,       0,    2.06
  1547, 1, 1,       0,    1.02
  1551, 1, 1,       0,    7.99
  1552, 1, 1,       0,   35.15
  1554, 1, 1,       0,    4.96
  1556, 1, 1,       0,    0.95
  1562, 1, 1,       0,    2.67
  1566, 1, 1,       0,    2.48
  1568, 1, 1,       0,    1.65
  1578, 1, 1,       0,    1.38
  1584, 1, 1,       0,    3.24
  1592, 1, 1,       0,    0.51
  1595, 1, 1,       0,    3.84
  1605, 1, 1,       0,    0.05
  1607, 1, 1,       0,    2.69
  1609, 1, 1,       0,    6.55
  1625, 1, 1,       0,    8.77
  1629, 1, 1,       0,    1.05
  1643, 1, 1,       0,   11.38
  1644, 1, 1,       0,   94.55
  1662, 1, 1,       0,    3.89
  1672, 1, 1,       0,     0.1
...
0 / END OF FIXED SHUNT DATA, BEGIN GENERATOR DATA
   124,  1,     861.3,     56.53,    440.32,   -172.59, 1.081537, 0,     100, 0, 1, 0, 0, 1, 1, 100,      1000,    333.33, 1, 1, 0, 1, 0, 1, 0, 1, 0, 1
   150,  1,     67.29,     -7.99,     77.09,    -22.54, 1.062805, 0,     100, 0, 1, 0, 0, 1, 1, 100,       160,         0, 1, 1, 0, 1, 0, 1, 0, 1, 0, 1
   221,  1,   -155.39,     97.68,    183.92,     -65.3, 0.984682, 0,     100, 0, 1, 0, 0, 1, 1, 100,       100,   -207.18, 1, 1, 0, 1, 0, 1, 0, 1, 0, 1
   338,  1,      83.7,       2.5,     55.54,    -19.16, 1.048249, 0,     100, 0, 1, 0, 0, 1, 1, 100,       120,         0, 1, 1, 0, 1, 0, 1, 0, 1, 0, 1
   352,  1,    1250.4,    278.94,    926.35,   -297.68, 1.055378, 0,     100, 0, 1, 0, 0, 1, 1, 100,      2000,    666.67, 1, 1, 0, 1, 0, 1, 0, 1, 0, 1
   413,  1,       231,     19.11,    124.12,    -49.84,  1.05013, 0,     100, 0, 1, 0, 0, 1, 1, 100,       280,         0, 1, 1, 0, 1, 0, 1, 0, 1, 0, 1
   453,  1,     260.1,     57.98,    257.23,     -74.4, 1.018914, 0,     100, 0, 1, 0, 0, 1, 1, 100,       540,         0, 1, 1, 0, 1, 0, 1, 0, 1, 0, 1
   516,  1,     539.4,    190.43,    261.79,   -106.67, 1.075592, 0,     100, 0, 1, 0, 0, 1, 1, 100,       600,       200, 1, 1, 0, 1, 0, 1, 0, 1, 0, 1
   564,  1,    -51.67,     -3.31,     18.47,    -19.35, 1.069817, 0,     100, 0, 1, 0, 0, 1, 1, 100,       100,    -68.89, 1, 1, 0, 1, 0, 1, 0, 1, 0, 1
   583,  1,      -270,      3.65,     17.88,     -7.03, 1.045397, 0,     100, 0, 1, 0, 0, 1, 1, 100,       100,      -360, 1, 1, 0, 1, 0, 1, 0, 1, 0, 1
   615,  1,      38.2,     -0.39,     17.09,     -7.79, 1.063876, 0,     100, 0, 1, 0, 0, 1, 1, 100,        40,         0, 1, 1, 0, 1, 0, 1, 0, 1, 0, 1
   616,  1,     379.2,     37.76,     217.9,    -81.16, 1.048713, 0,     100, 0, 1, 0, 0, 1, 1, 100,       480,       160, 1, 1, 0, 1, 0, 1, 0, 1, 0, 1
   639,  1,     -46.2,    112.55,    135.52,     -38.9, 1.051376, 0,     100, 0, 1, 0, 0, 1, 1, 100,       100,     -61.6, 1, 1, 0, 1, 0, 1, 0, 1, 0, 1
   682,  1,      37.4,      8.53,     38.77,    -11.06,   1.0691, 0,     100, 0, 1, 0, 0, 1, 1, 100,        80,         0, 1, 1, 0, 1, 0, 1, 0, 1, 0, 1
   749,  1,    198.88,    -11.17,    105.69,    -43.84, 1.057884, 0,     100, 0, 1, 0, 0, 1, 1, 100,       240,         0, 1, 1, 0, 1, 0, 1, 0, 1, 0, 1
   757,  1,     116.7,     13.66,      51.3,    -23.41, 1.017567, 0,     100, 0, 1, 0, 0, 1, 1, 100,       120,         0, 1, 1, 0, 1, 0, 1, 0, 1, 0, 1
   776,  1,    -111.4,      3.36,     18.16,     -6.73, 1.026368, 0,     100, 0, 1, 0, 0, 1, 1, 100,       100,   -148.53, 1, 1, 0, 1, 0, 1, 0, 1, 0, 1
   778,  1,      16.5,     -0.67,     12.37,     -9.36, 1.049411, 0,     100, 0, 1, 0, 0, 1, 1, 100,     33.58,         0, 1, 1, 0, 1, 0, 1, 0, 1, 0, 1
   795,  1,      58.4,      7.75,     36.75,    -13.04, 1.035522, 0,     100, 0, 1, 0, 0, 1, 1, 100,        80,         0, 1, 1, 0, 1, 0, 1, 0, 1, 0, 1
   803,  1,     -89.2,     -1.52,     74.03,    -25.54, 1.041369, 0,     100, 0, 1, 0, 0, 1, 1, 100,       100,   -118.93, 1, 1, 0, 1, 0, 1, 0, 1, 0, 1
   823,  1,    1274.2,    289.74,    926.68,   -298.31, 1.044097, 0,     100, 0, 1, 0, 0, 1, 1, 100,      2000,    666.67, 1, 1, 0, 1, 0, 1, 0, 1, 0, 1
   851,  1,     59.56,     50.82,     96.64,    -27.81,  1.00025, 0,     100, 0, 1, 0, 0, 1, 1, 100,       200,         0, 1, 1, 0, 1, 0, 1, 0, 1, 0, 1
   858,  1,     855.6,    147.86,    440.67,   -172.15, 1.031745, 0,     100, 0, 1, 0, 0, 1, 1, 100,      1000,    333.33, 1, 1, 0, 1, 0, 1, 0, 1, 0, 1
   891,  1,    1702.8,    651.53,   1097.41,   -373.91, 1.064525, 0,     100, 0, 1, 0, 0, 1, 1, 100,      2400,       800, 1, 1, 0, 1, 0, 1, 0, 1, 0, 1
   972,  1,    1221.2,    393.14,    934.73,   -291.52, 1.072621, 0,     100, 0, 1, 0, 0, 1, 1, 100,      2000,    666.67, 1, 1, 0, 1, 0, 1, 0, 1, 0, 1
  1001,  1,      92.1,     25.97,     55.02,    -19.81, 1.074143, 0,     100, 0, 1, 0, 0, 1, 1, 100,       120,         0, 1, 1, 0, 1, 0, 1, 0, 1, 0, 1
  1002,  1,       171,     10.89,     89.55,    -35.15, 1.041506, 0,     100, 0, 1, 0, 0, 1, 1, 100,       200,         0, 1, 1, 0, 1, 0, 1, 0, 1, 0, 1
  1043,  1,     829.5,        49,    387.88,    -163.4, 1.028946, 0,     100, 0, 1, 0, 0, 1, 1, 100,       900,       300, 1, 1, 0, 1, 0, 1, 0, 1, 0, 1
  1083,  1,      91.8,      9.85,     54.91,    -19.88, 1.049472, 0,     100, 0, 1, 0, 0, 1, 1, 100,       120,         0, 1, 1, 0, 1, 0, 1, 0, 1, 0, 1
  1093,  1,       837,     83.03,    550.69,   -185.15, 1.027056, 0,     100, 0, 1, 0, 0, 1, 1, 100,      1200,       400, 1, 1, 0, 1, 0, 1, 0, 1, 0, 1
  1100,  1,      58.2,       5.6,      36.8,    -13.01, 1.042801, 0,     100, 0, 1, 0, 0, 1, 1, 100,        80,         0, 1, 1, 0, 1, 0, 1, 0, 1, 0, 1
  1102,  1,   -124.15,      7.32,     38.05,    -11.59, 1.049879, 0,     100, 0, 1, 0, 0, 1, 1, 100,       100,   -165.54, 1, 1, 0, 1, 0, 1, 0, 1, 0, 1
  1237,  1,    1504.8,    364.78,    906.61,   -319.44, 1.108028, 0,     100, 0, 1, 0, 0, 1, 1, 100,      2000,    666.67, 1, 1, 0, 1, 0, 1, 0, 1, 0, 1
  1251,  1,       837,     77.94,    550.69,   -185.15, 1.027102, 0,     100, 0, 1, 0, 0, 1, 1, 100,      1200,       400, 1, 1, 0, 1, 0, 1, 0, 1, 0, 1
  1295,  1,    -124.1,      4.52,     36.92,    -12.88,  1.03682, 0,     100, 0, 1, 0, 0, 1, 1, 100,       100,   -165.47, 1, 1, 0, 1, 0, 1, 0, 1, 0, 1
  1341,  1,      67.2,     29.74,     57.03,    -17.62, 1.032899, 0,     100, 0, 1, 0, 0, 1, 1, 100,       120,         0, 1, 1, 0, 1, 0, 1, 0, 1, 0, 1
  1354,  1,    -246.5,     13.72,     38.08,    -11.73, 1.041045, 0,     100, 0, 1, 0, 0, 1, 1, 100,       100,   -328.67, 1, 1, 0, 1, 0, 1, 0, 1, 0, 1
  1422,  1,      -101,      2.33,     18.09,     -6.79,  1.04353, 0,     100, 0, 1, 0, 0, 1, 1, 100,       100,   -134.67, 1, 1, 0, 1, 0, 1, 0, 1, 0, 1
  1436,  1,      49.4,      2.95,     37.72,    -12.09, 1.047684, 0,     100, 0, 1, 0, 0, 1, 1, 100,        80,         0, 1, 1, 0, 1, 0, 1, 0, 1, 0, 1
  1478,  1,      62.6,      7.49,      36.4,    -13.44, 1.048068, 0,     100, 0, 1, 0, 0, 1, 1, 100,        80,         0, 1, 1, 0, 1, 0, 1, 0, 1, 0, 1
  1604,  1,      50.6,     13.86,     37.66,    -12.17, 1.043862, 0,     100, 0, 1, 0, 0, 1, 1, 100,        80,         0, 1, 1, 0, 1, 0, 1, 0, 1, 0, 1
  1642,  1,      50.4,     11.76,     37.74,    -12.11, 1.028554, 0,     100, 0, 1, 0, 0, 1, 1, 100,        80,         0, 1, 1, 0, 1, 0, 1, 0, 1, 0, 1
  1680,  1,    1250.4,    274.36,    928.89,    -296.1,  1.04395, 0,     100, 0, 1, 0, 0, 1, 1, 100,      2000,    666.67, 1, 1, 0, 1, 0, 1, 0, 1, 0, 1
  1708,  1,     860.8,    121.94,    439.37,    -173.3, 1.037938, 0,     100, 0, 1, 0, 0, 1, 1, 100,      1000,    333.33, 1, 1, 0, 1, 0, 1, 0, 1, 0, 1
  1721,  1,      28.1,      1.73,     18.52,     -6.39, 1.062238, 0,     100, 0, 1, 0, 0, 1, 1, 100,        40,         0, 1, 1, 0, 1, 0, 1, 0, 1, 0, 1
  1754,  1,        40,      3.62,     16.99,     -7.92,  1.04286, 0,     100, 0, 1, 0, 0, 1, 1, 100,     41.06,         0, 1, 1, 0, 1, 0, 1, 0, 1, 0, 1
  1794,  1,    1250.4,    253.94,    926.35,   -297.68,  1.05295, 0,     100, 0, 1, 0, 0, 1, 1, 100,      2000,    666.67, 1, 1, 0, 1, 0, 1, 0, 1, 0, 1
  1808,  1,      -0.6,    -13.17,    111.23,    -38.16, 1.046224, 0,     100, 0, 1, 0, 0, 1, 1, 100,       100,      -0.8, 1, 1, 0, 1, 0, 1, 0, 1, 0, 1
  1851,  1,      15.6,     -1.26,     11.76,     -8.89,  1.04762, 0,     100, 0, 1, 0, 0, 1, 1, 100,     31.92,         0, 1, 1, 0, 1, 0, 1, 0, 1, 0, 1
  1852,  1,    -241.8,     10.63,     58.16,    -16.52, 1.054325, 0,     100, 0, 1, 0, 0, 1, 1, 100,       100,    -322.4, 1, 1, 0, 1, 0, 1, 0, 1, 0, 1
  1888,  1,    573.68,     42.43,    396.02,   -155.83, 1.039377, 0,     100, 0, 1, 0, 0, 1, 1, 100,    912.78,    312.78, 1, 1, 0, 1, 0, 1, 0, 1, 0, 1
  1914,  1,     115.5,    -45.22,    160.36,   -150.95, 1.035636, 0,     100, 0, 1, 0, 0, 1, 1, 100,    472.16,     39.35, 1, 1, 0, 1, 0, 1, 0, 1, 0, 1
  1959,  1,        31,      0.56,     18.14,     -6.75, 1.064692, 0,     100, 0, 1, 0, 0, 1, 1, 100,        40,         0, 1, 1, 0, 1, 0, 1, 0, 1, 0, 1
  2035,  1,     855.6,    149.85,    441.85,   -171.27,  1.03088, 0,     100, 0, 1, 0, 0, 1, 1, 100,      1000,    333.33, 1, 1, 0, 1, 0, 1, 0, 1, 0, 1
  2050,  1,     836.2,    -16.43,     962.2,   -263.65, 1.009914, 0,     100, 0, 1, 0, 0, 1, 1, 100,      2000,    666.67, 1, 1, 0, 1, 0, 1, 0, 1, 0, 1
  2085,  1,       176,     31.77,     88.39,    -36.19, 1.040351, 0,     100, 0, 1, 0, 0, 1, 1, 100,       200,         0, 1, 1, 0, 1, 0, 1, 0, 1, 0, 1
  2177,  1,    -121.3,     13.33,     58.35,    -16.26,  1.07333, 0,     100, 0, 1, 0, 0, 1, 1, 100,       100,   -161.73, 1, 1, 0, 1, 0, 1, 0, 1, 0, 1
  2197,  1,    -53.29,     -1.42,     19.51,    -14.74, 1.035528, 0,     100, 0, 1, 0, 0, 1, 1, 100,       100,    -71.05, 1, 1, 0, 1, 0, 1, 0, 1, 0, 1
  2276,  1,      38.9,    -22.64,     41.67,     -36.5,  1.05324, 0,     100, 0, 1, 0, 0, 1, 1, 100,     119.3,         0, 1, 1, 0, 1, 0, 1, 0, 1, 0, 1
  2291,  1,     110.5,     13.69,     95.69,    -28.93, 1.072528, 0,     100, 0, 1, 0, 0, 1, 1, 100,       200,         0, 1, 1, 0, 1, 0, 1, 0, 1, 0, 1
  2359,  1,      78.2,       7.2,     34.35,     -15.5, 1.024884, 0,     100, 0, 1, 0, 0, 1, 1, 100,        80,         0, 1, 1, 0, 1, 0, 1, 0, 1, 0, 1
  2421,  1,    -320.4,      4.66,     37.39,    -12.45, 1.047766, 0,     100, 0, 1, 0, 0, 1, 1, 100,       100,    -427.2, 1, 1, 0, 1, 0, 1, 0, 1, 0, 1
  2425,  1,    -100.5,      5.31,      54.3,    -20.49, 1.041186, 0,     100, 0, 1, 0, 0, 1, 1, 100,       100,      -134, 1, 1, 0, 1, 0, 1, 0, 1, 0, 1
  2426,  1,     -43.2,    -30.65,    105.34,    -99.02, 1.037687, 0,     100, 0, 1, 0, 0, 1, 1, 100,       100,     -57.6, 1, 1, 0, 1, 0, 1, 0, 1, 0, 1
  2446,  1,      1367,    286.48,    921.62,   -304.73,  1.06157, 0,     100, 0, 1, 0, 0, 1, 1, 100,      2000,    666.67, 1, 1, 0, 1, 0, 1, 0, 1, 0, 1
  2468,  1,      46.8,      5.15,     38.02,    -11.81, 1.048132, 0,     100, 0, 1, 0, 0, 1, 1, 100,        80,         0, 1, 1, 0, 1, 0, 1, 0, 1, 0, 1
  2481,  1,      31.8,      11.5,     39.12,    -10.71, 1.042777, 0,     100, 0, 1, 0, 0, 1, 1, 100,        80,         0, 1, 1, 0, 1, 0, 1, 0, 1, 0, 1
  2489,  1,     286.5,     -15.8,     162.4,    -61.79, 1.049366, 0,     100, 0, 1, 0, 0, 1, 1, 100,       360,         0, 1, 1, 0, 1, 0, 1, 0, 1, 0, 1
  2550,  1,      54.3,      4.31,     58.23,    -16.49, 1.049384, 0,     100, 0, 1, 0, 0, 1, 1, 100,       120,         0, 1, 1, 0, 1, 0, 1, 0, 1, 0, 1
  2600,  1,     76.48,      16.9,     76.08,    -23.59, 1.038821, 0,     100, 0, 1, 0, 0, 1, 1, 100,       160,         0, 1, 1, 0, 1, 0, 1, 0, 1, 0, 1
  2627,  1,      1367,    302.84,    921.52,   -304.79, 1.061488, 0,     100, 0, 1, 0, 0, 1, 1, 100,      2000,    666.67, 1, 1, 0, 1, 0, 1, 0, 1, 0, 1
  2653,  1,     41.92,      3.94,     51.94,     -22.8, 1.036517, 0,     100, 0, 1, 0, 0, 1, 1, 100,       120,         0, 1, 1, 0, 1, 0, 1, 0, 1, 0, 1
  2719,  1,      77.6,    -15.35,     70.15,     -58.1, 1.035384, 0,     100, 0, 1, 0, 0, 1, 1, 100,    196.72,         0, 1, 1, 0, 1, 0, 1, 0, 1, 0, 1
  2786,  1,    1221.2,    372.42,    934.81,   -291.47, 1.073795, 0,     100, 0, 1, 0, 0, 1, 1, 100,      2000,    666.67, 1, 1, 0, 1, 0, 1, 0, 1, 0, 1
  2797,  1,     -95.1,    -11.62,     88.33,    -36.33, 1.042226, 0,     100, 0, 1, 0, 0, 1, 1, 100,       100,    -126.8, 1, 1, 0, 1, 0, 1, 0, 1, 0, 1
  2799,  1,      66.8,     -1.21,     77.91,    -21.66,  1.05396, 0,     100, 0, 1, 0, 0, 1, 1, 100,       160,         0, 1, 1, 0, 1, 0, 1, 0, 1, 0, 1
  2816,  1,    1250.4,     270.9,    926.26,   -297.74, 1.053944, 0,     100, 0, 1, 0, 0, 1, 1, 100,      2000,    666.67, 1, 1, 0, 1, 0, 1, 0, 1, 0, 1
  2841,  1,      80.7,     -3.29,     55.98,    -18.76,  1.08248, 0,     100, 0, 1, 0, 0, 1, 1, 100,       120,         0, 1, 1, 0, 1, 0, 1, 0, 1, 0, 1
  2842,  1,      31.6,      5.75,     18.19,     -6.74, 1.043712, 0,     100, 0, 1, 0, 0, 1, 1, 100,        40,         0, 1, 1, 0, 1, 0, 1, 0, 1, 0, 1
  2872,  1,       4.5,      0.33,      3.31,     -2.54, 1.063841, 0,     100, 0, 1, 0, 0, 1, 1, 100,      9.05,         0, 1, 1, 0, 1, 0, 1, 0, 1, 0, 1
  2878,  1,      8.95,    -11.72,     72.95,    -68.71, 1.057626, 0,     100, 0, 1, 0, 0, 1, 1, 100,    214.86,         0, 1, 1, 0, 1, 0, 1, 0, 1, 0, 1
  2886,  1,      60.9,     10.71,     57.69,    -17.02, 1.055151, 0,     100, 0, 1, 0, 0, 1, 1, 100,       120,         0, 1, 1, 0, 1, 0, 1, 0, 1, 0, 1
  2902,  1,      20.9,      1.11,     19.19,     -5.72, 1.059072, 0,     100, 0, 1, 0, 0, 1, 1, 100,        40,         0, 1, 1, 0, 1, 0, 1, 0, 1, 0, 1
  2930,  1,      53.2,      2.49,     37.24,    -12.54, 1.047695, 0,     100, 0, 1, 0, 0, 1, 1, 100,        80,         0, 1, 1, 0, 1, 0, 1, 0, 1, 0, 1
  2934,  1,       3.4,     -0.16,      2.51,     -1.91, 1.051149, 0,     100, 0, 1, 0, 0, 1, 1, 100,      6.83,         0, 1, 1, 0, 1, 0, 1, 0, 1, 0, 1
  2985,  1,      46.6,    -69.84,    184.46,   -132.67, 1.053607, 0,     100, 0, 1, 0, 0, 1, 1, 100,    493.35,         0, 1, 1, 0, 1, 0, 1, 0, 1, 0, 1
  3018,  1,     162.5,     -4.77,     89.61,    -34.82, 1.041705, 0,     100, 0, 1, 0, 0, 1, 1, 100,       200,         0, 1, 1, 0, 1, 0, 1, 0, 1, 0, 1
  3028,  1,     855.7,    146.13,    441.85,   -171.27, 1.030654, 0,     100, 0, 1, 0, 0, 1, 1, 100,      1000,    333.33, 1, 1, 0, 1, 0, 1, 0, 1, 0, 1
  3114,  1,      38.6,      4.12,     17.33,     -7.61, 1.071964, 0,     100, 0, 1, 0, 0, 1, 1, 100,        40,         0, 1, 1, 0, 1, 0, 1, 0, 1, 0, 1
  3133,  1,     85.54,      0.39,    113.97,    -35.56, 1.065372, 0,     100, 0, 1, 0, 0, 1, 1, 100,       240,         0, 1, 1, 0, 1, 0, 1, 0, 1, 0, 1
  3134,  1,    -136.3,    -11.71,     70.25,    -29.33, 1.023117, 0,     100, 0, 1, 0, 0, 1, 1, 100,       100,   -181.73, 1, 1, 0, 1, 0, 1, 0, 1, 0, 1
  3183,  1,      98.7,     -3.57,      53.7,    -20.98, 1.055515, 0,     100, 0, 1, 0, 0, 1, 1, 100,       120,         0, 1, 1, 0, 1, 0, 1, 0, 1, 0, 1
  3205,  1,     416.7,    119.72,    243.61,    -88.46, 1.041982, 0,     100, 0, 1, 0, 0, 1, 1, 100,       540,         0, 1, 1, 0, 1, 0, 1, 0, 1, 0, 1
  3218,  1,    -107.4,      4.44,     36.79,       -13, 1.028507, 0,     100, 0, 1, 0, 0, 1, 1, 100,       100,    -143.2, 1, 1, 0, 1, 0, 1, 0, 1, 0, 1
  3240,  1,     -42.3,    -25.61,     62.23,    -51.37, 1.050305, 0,     100, 0, 1, 0, 0, 1, 1, 100,       100,     -56.4, 1, 1, 0, 1, 0, 1, 0, 1, 0, 1
  3306,  1,     861.3,    143.67,     439.2,   -173.43, 1.071978, 0,     100, 0, 1, 0, 0, 1, 1, 100,      1000,    333.33, 1, 1, 0, 1, 0, 1, 0, 1, 0, 1
  3324,  1,    -26.48,     12.72,     38.13,    -11.64, 1.014126, 0,     100, 0, 1, 0, 0, 1, 1, 100,       100,     -35.3, 1, 1, 0, 1, 0, 1, 0, 1, 0, 1
  3346,  1,      56.8,     11.49,      37.1,    -12.76,  1.01594, 0,     100, 0, 1, 0, 0, 1, 1, 100,        80,         0, 1, 1, 0, 1, 0, 1, 0, 1, 0, 1
  3353,  1,     19.07,      5.42,      38.2,    -11.61, 1.045739, 0,     100, 0, 1, 0, 0, 1, 1, 100,        80,         0, 1, 1, 0, 1, 0, 1, 0, 1, 0, 1
  3364,  1,      44.5,    -21.96,     47.19,    -41.44,   1.0538, 0,     100, 0, 1, 0, 0, 1, 1, 100,    135.27,         0, 1, 1, 0, 1, 0, 1, 0, 1, 0, 1
  3390,  1,       2.4,     12.68,     54.59,    -20.19, 1.039984, 0,     100, 0, 1, 0, 0, 1, 1, 100,       120,         0, 1, 1, 0, 1, 0, 1, 0, 1, 0, 1
  3422,  1,      53.7,     -3.24,     58.19,     -16.5, 1.063657, 0,     100, 0, 1, 0, 0, 1, 1, 100,       120,         0, 1, 1, 0, 1, 0, 1, 0, 1, 0, 1
  3436,  1,       521,    217.43,    550.97,   -184.89, 1.060777, 0,     100, 0, 1, 0, 0, 1, 1, 100,      1200,       400, 1, 1, 0, 1, 0, 1, 0, 1, 0, 1
  3492,  1,    -370.8,      2.02,     53.75,    -21.08,  1.04852, 0,     100, 0, 1, 0, 0, 1, 1, 100,       100,    -494.4, 1, 1, 0, 1, 0, 1, 0, 1, 0, 1
  3513,  1,     829.8,        51,    387.88,    -163.4, 1.028771, 0,     100, 0, 1, 0, 0, 1, 1, 100,       900,       300, 1, 1, 0, 1, 0, 1, 0, 1, 0, 1
  3565,  1,     15.88,      2.27,     38.83,    -10.97, 1.081614, 0,     100, 0, 1, 0, 0, 1, 1, 100,        80,         0, 1, 1, 0, 1, 0, 1, 0, 1, 0, 1
  3580,  1,       539,    189.12,     261.7,   -107.36,  1.07602, 0,     100, 0, 1, 0, 0, 1, 1, 100,       600,         0, 1, 1, 0, 1, 0, 1, 0, 1, 0, 1
  3611,  1,    -125.4,      3.51,     54.59,    -20.12,  1.03905, 0,     100, 0, 1, 0, 0, 1, 1, 100,       100,    -167.2, 1, 1, 0, 1, 0, 1, 0, 1, 0, 1
  3656,  1,     -26.2,     12.26,    116.07,    -33.32, 1.070983, 0,     100, 0, 1, 0, 0, 1, 1, 100,       100,    -34.93, 1, 1, 0, 1, 0, 1, 0, 1, 0, 1
  3661,  1,     861.2,    118.75,    441.04,   -172.05, 1.059676, 0,     100, 0, 1, 0, 0, 1, 1, 100,      1000,    333.33, 1, 1, 0, 1, 0, 1, 0, 1, 0, 1
  3698,  1,    -12.58,      3.09,     36.34,    -13.47, 1.041813, 0,     100, 0, 1, 0, 0, 1, 1, 100,       100,    -16.78, 1, 1, 0, 1, 0, 1, 0, 1, 0, 1
  3741,  1,     854.7,    190.06,    548.57,   -187.16, 1.031629, 0,     100, 0, 1, 0, 0, 1, 1, 100,      1200,       400, 1, 1, 0, 1, 0, 1, 0, 1, 0, 1
  3809,  1,       257,    122.15,    313.01,   -116.73, 1.084785, 0,     100, 0, 1, 0, 0, 1, 1, 100,       700,    233.33, 1, 1, 0, 1, 0, 1, 0, 1, 0, 1
  3825,  1,     837.3,      54.8,    388.17,    -163.4, 1.026994, 0,     100, 0, 1, 0, 0, 1, 1, 100,       900,       300, 1, 1, 0, 1, 0, 1, 0, 1, 0, 1
  3869,  1,     855.6,    148.23,    440.69,   -172.14, 1.031907, 0,     100, 0, 1, 0, 0, 1, 1, 100,      1000,    333.33, 1, 1, 0, 1, 0, 1, 0, 1, 0, 1
  3876,  1,     -25.1,      6.45,     34.27,    -15.52, 1.044501, 0,     100, 0, 1, 0, 0, 1, 1, 100,       100,    -33.47, 1, 1, 0, 1, 0, 1, 0, 1, 0, 1
  3916,  1,    -21.27,     11.22,     38.02,    -11.77, 1.043758, 0,     100, 0, 1, 0, 0, 1, 1, 100,       100,    -28.37, 1, 1, 0, 1, 0, 1, 0, 1, 0, 1
  3951,  1,     -27.1,    -74.05,    126.16,   -127.56, 1.027439, 0,     100, 0, 1, 0, 0, 1, 1, 100,       100,    -36.13, 1, 1, 0, 1, 0, 1, 0, 1, 0, 1
  3971,  1,    -134.5,      9.64,     55.67,    -19.09, 1.063145, 0,     100, 0, 1, 0, 0, 1, 1, 100,       100,   -179.33, 1, 1, 0, 1, 0, 1, 0, 1, 0, 1
  4024,  1,      89.5,     40.38,     97.07,    -27.44, 1.040328, 0,     100, 0, 1, 0, 0, 1, 1, 100,       200,         0, 1, 1, 0, 1, 0, 1, 0, 1, 0, 1
  4056,  1,     -76.9,      3.73,     38.05,    -11.77, 1.038526, 0,     100, 0, 1, 0, 0, 1, 1, 100,       100,   -102.53, 1, 1, 0, 1, 0, 1, 0, 1, 0, 1
  4084,  1,     366.1,     46.44,    264.94,   -103.74, 1.063234, 0,     100, 0, 1, 0, 0, 1, 1, 100,       600,         0, 1, 1, 0, 1, 0, 1, 0, 1, 0, 1
  4118,  1,        41,      5.09,     38.37,     -11.4, 1.027195, 0,     100, 0, 1, 0, 0, 1, 1, 100,        80,         0, 1, 1, 0, 1, 0, 1, 0, 1, 0, 1
  4125,  1,      59.6,      16.3,     36.89,       -13, 1.003502, 0,     100, 0, 1, 0, 0, 1, 1, 100,        80,         0, 1, 1, 0, 1, 0, 1, 0, 1, 0, 1
  4128,  1,      67.5,     24.27,     57.03,    -17.63, 1.019761, 0,     100, 0, 1, 0, 0, 1, 1, 100,       120,         0, 1, 1, 0, 1, 0, 1, 0, 1, 0, 1
  4231,  1,   2641.24,     771.6,       Inf,      -Inf, 1.049182, 0,     100, 0, 1, 0, 0, 1, 1, 100,   4188.95,   1333.33, 1, 1, 0, 1, 0, 1, 0, 1, 0, 1
  4331,  1,      60.2,      6.92,     36.73,    -13.12, 1.028646, 0,     100, 0, 1, 0, 0, 1, 1, 100,        80,         0, 1, 1, 0, 1, 0, 1, 0, 1, 0, 1
...